# Well file for MODFLOW, generated by Flopy.
         1        53
         1         0 # stress period 0
         1         1         1  1.000000
